networks/opendss/CKT_3250_02485.dss
! OpenDSS script generated from multiconductor network
Clear

New Circuit.mc_network basekv=12.0 pu=1.000000 angle=0.00 frequency=60.0 phases=3 Mvasc3=143993 Mvasc1=47997.6
~ bus1=-8888882182778.1.2.3

! Line codes
New LineCode.1000_CLP_3PH_12KV_3 nphases=3 units=km Rmatrix=[ 0.010016 | 0 0.010016 | 0 0 0.010016 ] Xmatrix=[ 0.015162 | 0 0.015162 | 0 0 0.015162 ] Cmatrix=[ 0 | 0 0 | 0 0 0 ]
New LineCode.750_CLP_3PH_12KV_3 nphases=3 units=km Rmatrix=[ 0.033342 | 0 0.033342 | 0 0 0.033342 ] Xmatrix=[ 0.040948 | 0 0.040948 | 0 0 0.040948 ] Cmatrix=[ 0 | 0 0 | 0 0 0 ]
New LineCode.750_JCN_3PH_12KV_3 nphases=3 units=km Rmatrix=[ 0.037726 | 0 0.037726 | 0 0 0.037726 ] Xmatrix=[ 0.046332 | 0 0.046332 | 0 0 0.046332 ] Cmatrix=[ 0 | 0 0 | 0 0 0 ]
New LineCode.1/0_CLP_3PH_12KV_3 nphases=3 units=km Rmatrix=[ 0.05821 | 0 0.05821 | 0 0 0.05821 ] Xmatrix=[ 0.017792 | 0 0.017792 | 0 0 0.017792 ] Cmatrix=[ 0 | 0 0 | 0 0 0 ]
New LineCode.2_CLP_2PH_12KV_2 nphases=2 units=km Rmatrix=[ 0.005333 | 0 0.005333 ] Xmatrix=[ 0.001124 | 0 0.001124 ] Cmatrix=[ 0 | 0 0 ]
New LineCode.2_CLP_3PH_12KV_3 nphases=3 units=km Rmatrix=[ 0.03408 | 0 0.03408 | 0 0 0.03408 ] Xmatrix=[ 0.007183 | 0 0.007183 | 0 0 0.007183 ] Cmatrix=[ 0 | 0 0 | 0 0 0 ]
New LineCode.1/0_AL_2PH_12KV_2 nphases=2 units=km Rmatrix=[ 0.052054 | 0 0.052054 ] Xmatrix=[ 0.01591 | 0 0.01591 ] Cmatrix=[ 0 | 0 0 ]
New LineCode.1/0_JCN_1PH_12KV_1 nphases=1 units=km Rmatrix=[ 0.003292 ] Xmatrix=[ 0.001006 ] Cmatrix=[ 0 ]
New LineCode.350_AL_2PH_12KV_2 nphases=2 units=km Rmatrix=[ 0.000634 | 0 0.000634 ] Xmatrix=[ 0.000481 | 0 0.000481 ] Cmatrix=[ 0 | 0 0 ]
New LineCode.2_CLP_1PH_12KV_1 nphases=1 units=km Rmatrix=[ 0.130228 ] Xmatrix=[ 0.02745 ] Cmatrix=[ 0 ]
New LineCode.2_JCN_2PH_12KV_2 nphases=2 units=km Rmatrix=[ 0.041716 | 0 0.041716 ] Xmatrix=[ 0.008793 | 0 0.008793 ] Cmatrix=[ 0 | 0 0 ]
New LineCode.1/0_JCN_3PH_12KV_3 nphases=3 units=km Rmatrix=[ 0.055536 | 0 0.055536 | 0 0 0.055536 ] Xmatrix=[ 0.016974 | 0 0.016974 | 0 0 0.016974 ] Cmatrix=[ 0 | 0 0 | 0 0 0 ]
New LineCode.1/0_JCN_2PH_12KV_2 nphases=2 units=km Rmatrix=[ 0.004586 | 0 0.004586 ] Xmatrix=[ 0.001402 | 0 0.001402 ] Cmatrix=[ 0 | 0 0 ]
New LineCode.1/0_AL_3PH_12KV_3 nphases=3 units=km Rmatrix=[ 0.165218 | 0 0.165218 | 0 0 0.165218 ] Xmatrix=[ 0.050498 | 0 0.050498 | 0 0 0.050498 ] Cmatrix=[ 0 | 0 0 | 0 0 0 ]
New LineCode.2_AL_3PH_12KV_3 nphases=3 units=km Rmatrix=[ 0.010458 | 0 0.010458 | 0 0 0.010458 ] Xmatrix=[ 0.002204 | 0 0.002204 | 0 0 0.002204 ] Cmatrix=[ 0 | 0 0 | 0 0 0 ]
New LineCode.350_CLP_2PH_12KV_2 nphases=2 units=km Rmatrix=[ 0.042077 | 0 0.042077 ] Xmatrix=[ 0.03197 | 0 0.03197 ] Cmatrix=[ 0 | 0 0 ]
New LineCode.4_ACSR_2PH_12KV_2 nphases=2 units=km Rmatrix=[ 0.014105 | 0 0.014105 ] Xmatrix=[ 0.005176 | 0 0.005176 ] Cmatrix=[ 0 | 0 0 ]
New LineCode.1/0_ACSR_2PH_12KV_2 nphases=2 units=km Rmatrix=[ 0.048793 | 0 0.048793 ] Xmatrix=[ 0.038849 | 0 0.038849 ] Cmatrix=[ 0 | 0 0 ]
New LineCode.336_ACSR_3PH_12KV_3 nphases=3 units=km Rmatrix=[ 0.000679 | 0 0.000679 | 0 0 0.000679 ] Xmatrix=[ 0.00152 | 0 0.00152 | 0 0 0.00152 ] Cmatrix=[ 0 | 0 0 | 0 0 0 ]
New LineCode.1/0_ACSR_3PH_12KV_3 nphases=3 units=km Rmatrix=[ 0.035996 | 0 0.035996 | 0 0 0.035996 ] Xmatrix=[ 0.02866 | 0 0.02866 | 0 0 0.02866 ] Cmatrix=[ 0 | 0 0 | 0 0 0 ]
New LineCode.4_ACSR_3PH_12KV_3 nphases=3 units=km Rmatrix=[ 0.018829 | 0 0.018829 | 0 0 0.018829 ] Xmatrix=[ 0.006909 | 0 0.006909 | 0 0 0.006909 ] Cmatrix=[ 0 | 0 0 | 0 0 0 ]
New LineCode.336_ACSR_3PH_336_ACSR_N_12KV_4 nphases=4 units=km Rmatrix=[ 0.03634 | 0 0.03634 | 0 0 0.03634 | 0 0 0 0.03634 ] Xmatrix=[ 0.07247 | 0 0.07247 | 0 0 0.07247 | 0 0 0 0.07247 ] Cmatrix=[ 0 | 0 0 | 0 0 0 | 0 0 0 0 ]
New LineCode.8_CU_2PH_12KV_2 nphases=2 units=km Rmatrix=[ 0.140675 | 0 0.140675 ] Xmatrix=[ 0.049863 | 0 0.049863 ] Cmatrix=[ 0 | 0 0 ]
New LineCode.1/0_ACSR_3PH_12KV_4 nphases=4 units=km Rmatrix=[ 0.035996 | 0 0.035996 | 0 0 0.035996 | 0 0 0 0.035996 ] Xmatrix=[ 0.02866 | 0 0.02866 | 0 0 0.02866 | 0 0 0 0.02866 ] Cmatrix=[ 0 | 0 0 | 0 0 0 | 0 0 0 0 ]
New LineCode.336_ACSR_2PH_12KV_2 nphases=2 units=km Rmatrix=[ 0.029941 | 0 0.029941 ] Xmatrix=[ 0.067048 | 0 0.067048 ] Cmatrix=[ 0 | 0 0 ]
New LineCode.2_AL_2PH_12KV_2 nphases=2 units=km Rmatrix=[ 0.007217 | 0 0.007217 ] Xmatrix=[ 0.001521 | 0 0.001521 ] Cmatrix=[ 0 | 0 0 ]
New LineCode.1000_JCN_3PH_12KV_3 nphases=3 units=km Rmatrix=[ 0.00425 | 0 0.00425 | 0 0 0.00425 ] Xmatrix=[ 0.006433 | 0 0.006433 | 0 0 0.006433 ] Cmatrix=[ 0 | 0 0 | 0 0 0 ]
New LineCode.2_CIC_2PH_12KV_2 nphases=2 units=km Rmatrix=[ 0.3643 | 0 0.3643 ] Xmatrix=[ 0.076788 | 0 0.076788 ] Cmatrix=[ 0 | 0 0 ]
New LineCode.350_CLP_3PH_12KV_3 nphases=3 units=km Rmatrix=[ 0.037588 | 0 0.037588 | 0 0 0.037588 ] Xmatrix=[ 0.028559 | 0 0.028559 | 0 0 0.028559 ] Cmatrix=[ 0 | 0 0 | 0 0 0 ]
New LineCode.1/0_ACSR_2PH_1/0_ACSR_N_12KV_3_N nphases=3 units=km Rmatrix=[ 0.003772 | 0 0.003772 | 0 0 0.003772 ] Xmatrix=[ 0.002726 | 0 0.002726 | 0 0 0.002726 ] Cmatrix=[ 0 | 0 0 | 0 0 0 ]
New LineCode.1/0_ACSR_2PH_12KV_3_N nphases=3 units=km Rmatrix=[ 0.048793 | 0 0.048793 | 0 0 0.048793 ] Xmatrix=[ 0.038849 | 0 0.038849 | 0 0 0.038849 ] Cmatrix=[ 0 | 0 0 | 0 0 0 ]
New LineCode.8_ACSR_3PH_12KV_3 nphases=3 units=km Rmatrix=[ 0.105514 | 0 0.105514 | 0 0 0.105514 ] Xmatrix=[ 0.038717 | 0 0.038717 | 0 0 0.038717 ] Cmatrix=[ 0 | 0 0 | 0 0 0 ]
New LineCode.1/0_ATW_2PH_12KV_2 nphases=2 units=km Rmatrix=[ 1e-05 | 0 1e-05 ] Xmatrix=[ 1e-05 | 0 1e-05 ] Cmatrix=[ 0 | 0 0 ]
New LineCode.336_ATW_3PH_12KV_3 nphases=3 units=km Rmatrix=[ 1e-05 | 0 1e-05 | 0 0 1e-05 ] Xmatrix=[ 1e-05 | 0 1e-05 | 0 0 1e-05 ] Cmatrix=[ 0 | 0 0 | 0 0 0 ]
New LineCode.1/0_ATW_3PH_12KV_3 nphases=3 units=km Rmatrix=[ 1e-05 | 0 1e-05 | 0 0 1e-05 ] Xmatrix=[ 1e-05 | 0 1e-05 | 0 0 1e-05 ] Cmatrix=[ 0 | 0 0 | 0 0 0 ]
New LineCode.350_JCN_3PH_12KV_3 nphases=3 units=km Rmatrix=[ 0.043947 | 0 0.043947 | 0 0 0.043947 ] Xmatrix=[ 0.03339 | 0 0.03339 | 0 0 0.03339 ] Cmatrix=[ 0 | 0 0 | 0 0 0 ]
New LineCode.1/0_ACSR_3PH_1/0_ACSR_N_12KV_4 nphases=4 units=km Rmatrix=[ 0.002709 | 0 0.002709 | 0 0 0.002709 | 0 0 0 0.002709 ] Xmatrix=[ 0.001958 | 0 0.001958 | 0 0 0.001958 | 0 0 0 0.001958 ] Cmatrix=[ 0 | 0 0 | 0 0 0 | 0 0 0 0 ]
New LineCode.4_ACSR_3PH_12KV_4 nphases=4 units=km Rmatrix=[ 0.018829 | 0 0.018829 | 0 0 0.018829 | 0 0 0 0.018829 ] Xmatrix=[ 0.006909 | 0 0.006909 | 0 0 0.006909 | 0 0 0 0.006909 ] Cmatrix=[ 0 | 0 0 | 0 0 0 | 0 0 0 0 ]
New LineCode.2_ACSR_3PH_12KV_3 nphases=3 units=km Rmatrix=[ 0.081589 | 0 0.081589 | 0 0 0.081589 ] Xmatrix=[ 0.043863 | 0 0.043863 | 0 0 0.043863 ] Cmatrix=[ 0 | 0 0 | 0 0 0 ]
New LineCode.4_CU_2PH_12KV_2 nphases=2 units=km Rmatrix=[ 0.016246 | 0 0.016246 ] Xmatrix=[ 0.008854 | 0 0.008854 ] Cmatrix=[ 0 | 0 0 ]
New LineCode.1/0_ATW_1PH_12KV_2 nphases=2 units=km Rmatrix=[ 1e-05 | 0 1e-05 ] Xmatrix=[ 1e-05 | 0 1e-05 ] Cmatrix=[ 0 | 0 0 ]

! Lines
New Line.10735$GS1027-1 phases=3 Bus1=-8888882182778.1.2.3 Bus2=239832105.1.2.3 LineCode=1000_CLP_3PH_12KV_3 Length=0.223248 units=km
New Line.ND141884590$GS1027-3 phases=3 Bus1=239832123.1.2.3 Bus2=141884590.1.2.3 LineCode=1000_CLP_3PH_12KV_3 Length=0.11817 units=km
New Line.GS2789-1$GS1027-4 phases=3 Bus1=239832132.1.2.3 Bus2=144377836.1.2.3 LineCode=750_CLP_3PH_12KV_3 Length=0.920725 units=km
New Line.ND141884590$GS2788-2 phases=3 Bus1=141884590.1.2.3 Bus2=144944007.1.2.3 LineCode=1000_CLP_3PH_12KV_3 Length=0.143794 units=km
New Line.GS2789-4$ND143455536 phases=3 Bus1=144377852.1.2.3 Bus2=143455536.1.2.3 LineCode=750_JCN_3PH_12KV_3 Length=0.334858 units=km
New Line.ND143455536$4148757EP2 phases=3 Bus1=143455536.1.2.3 Bus2=153413942.1.2.3 LineCode=750_CLP_3PH_12KV_3 Length=0.345383 units=km
New Line.GS1513-3$ND143455536 phases=3 Bus1=143455536.1.2.3 Bus2=41081485.1.2.3 LineCode=750_CLP_3PH_12KV_3 Length=0.042926 units=km
New Line.PH118$197111813 phases=3 Bus1=41023454.1.2.3 Bus2=197111815.1.2.3 LineCode=1/0_CLP_3PH_12KV_3 Length=0.082572 units=km
New Line.FD76390$184839197 phases=2 Bus1=94698847.1.3 Bus2=184839199.1.3 LineCode=2_CLP_2PH_12KV_2 Length=0.081101 units=km
New Line.197111813$P5023400-1 phases=3 Bus1=197111816.1.2.3 Bus2=41132518.1.2.3 LineCode=1/0_CLP_3PH_12KV_3 Length=0.002741 units=km
New Line.111168731$ND111168788 phases=3 Bus1=111168734.1.2.3 Bus2=111168788.1.2.3 LineCode=2_CLP_3PH_12KV_3 Length=0.016484 units=km
New Line.P5386825-1$137930359 phases=2 Bus1=28157373.1.3 Bus2=137930361.1.3 LineCode=1/0_AL_2PH_12KV_2 Length=0.294129 units=km
New Line.240865066$P5573676-1 phases=1 Bus1=240865069.2 Bus2=240865084.2 LineCode=1/0_JCN_1PH_12KV_1 Length=0.003768 units=km
New Line.P5430289-1$ND28260944 phases=2 Bus1=28097027.1.2 Bus2=28260944.1.2 LineCode=2_CLP_2PH_12KV_2 Length=0.086211 units=km
New Line.P5575012-1$177005561 phases=2 Bus1=177005563.2.3 Bus2=140393998.2.3 LineCode=350_AL_2PH_12KV_2 Length=0.406164 units=km
New Line.ND142273186$ND111168788 phases=3 Bus1=111168788.1.2.3 Bus2=142273186.1.2.3 LineCode=2_CLP_3PH_12KV_3 Length=0.003971 units=km
New Line.ND111168788$142273208 phases=3 Bus1=111168788.1.2.3 Bus2=142273211.1.2.3 LineCode=2_CLP_3PH_12KV_3 Length=0.023456 units=km
New Line.184839197$P5520010-2 phases=2 Bus1=184839200.1.3 Bus2=94698884.1.3 LineCode=2_CLP_2PH_12KV_2 Length=0.003187 units=km
New Line.P5431646-2$ND28260944 phases=2 Bus1=28260944.1.2 Bus2=28096964.1.2 LineCode=2_CLP_2PH_12KV_2 Length=0.220984 units=km
New Line.P5417162-2$ND28260944 phases=1 Bus1=28260944.2 Bus2=28097108.2 LineCode=2_CLP_1PH_12KV_1 Length=0.145802 units=km
New Line.111168750$ND142273186 phases=3 Bus1=142273186.1.2.3 Bus2=111168753.1.2.3 LineCode=2_CLP_3PH_12KV_3 Length=0.027332 units=km
New Line.111168804$ND142273186 phases=3 Bus1=142273186.1.2.3 Bus2=111168807.1.2.3 LineCode=2_CLP_3PH_12KV_3 Length=0.018731 units=km
New Line.137930359$ND137930460 phases=2 Bus1=137930362.1.3 Bus2=137930460.1.3 LineCode=1/0_AL_2PH_12KV_2 Length=0.013151 units=km
New Line.4235031E$PMS1918-1 phases=2 Bus1=28096818.1.2 Bus2=28096834.1.2 LineCode=1/0_AL_2PH_12KV_2 Length=0.041297 units=km
New Line.137930337$ND137930460 phases=2 Bus1=137930460.1.3 Bus2=137930340.1.3 LineCode=2_JCN_2PH_12KV_2 Length=0.01548 units=km
New Line.ND137930460$ND137930479 phases=2 Bus1=137930460.1.3 Bus2=137930479.1.3 LineCode=2_JCN_2PH_12KV_2 Length=0.009547 units=km
New Line.142273208$142273234 phases=2 Bus1=142273210.2.3 Bus2=142273236.2.3 LineCode=2_JCN_2PH_12KV_2 Length=0.134216 units=km
New Line.4325028E$PMS1924-1 phases=2 Bus1=28096683.1.3 Bus2=28096771.1.3 LineCode=1/0_AL_2PH_12KV_2 Length=0.035541 units=km
New Line.105651186$111168750 phases=3 Bus1=111168746.1.2.3 Bus2=105651188.1.2.3 LineCode=2_CLP_3PH_12KV_3 Length=0.099519 units=km
New Line.111168819$111168804 phases=3 Bus1=111168799.1.2.3 Bus2=111168800.1.2.3 LineCode=2_CLP_3PH_12KV_3 Length=0.056871 units=km
New Line.ND137930479$137930349 phases=2 Bus1=137930479.1.3 Bus2=137930352.1.3 LineCode=2_JCN_2PH_12KV_2 Length=0.019536 units=km
New Line.137930379$ND137930479 phases=2 Bus1=137930479.1.3 Bus2=137930382.1.3 LineCode=2_JCN_2PH_12KV_2 Length=0.036072 units=km
New Line.P5575012-2$169534243 phases=2 Bus1=140394007.2.3 Bus2=169534245.2.3 LineCode=350_AL_2PH_12KV_2 Length=0.412775 units=km
New Line.P5403003-1$PMS1918-1 phases=2 Bus1=28096835.1.2 Bus2=28188390.1.2 LineCode=2_CLP_2PH_12KV_2 Length=0.072347 units=km
New Line.P5431646-1$ND99562513 phases=2 Bus1=28096955.1.2 Bus2=99562513.1.2 LineCode=2_CLP_2PH_12KV_2 Length=0.211498 units=km
New Line.101468538$PMS1924-1 phases=2 Bus1=28096772.1.3 Bus2=101468540.1.3 LineCode=1/0_AL_2PH_12KV_2 Length=0.127162 units=km
New Line.137930337$136515354 phases=2 Bus1=137930339.1.3 Bus2=136515356.1.3 LineCode=2_JCN_2PH_12KV_2 Length=0.124457 units=km
New Line.142273234$P5568906-2 phases=2 Bus1=142273237.2.3 Bus2=142273266.2.3 LineCode=2_JCN_2PH_12KV_2 Length=0.001539 units=km
New Line.ND99562513$99415478 phases=2 Bus1=99562513.1.2 Bus2=99415480.1.2 LineCode=2_CLP_2PH_12KV_2 Length=0.019821 units=km
New Line.ND99562513$P5520059-1 phases=2 Bus1=99562513.1.2 Bus2=99562532.1.2 LineCode=2_CLP_2PH_12KV_2 Length=0.086755 units=km
New Line.111168819$111168848 phases=3 Bus1=111168822.1.2.3 Bus2=111168851.1.2.3 LineCode=2_CLP_3PH_12KV_3 Length=0.030367 units=km
New Line.137930379$137930369 phases=2 Bus1=137930381.1.3 Bus2=137930371.1.3 LineCode=2_JCN_2PH_12KV_2 Length=0.006542 units=km
New Line.137930349$137930409 phases=2 Bus1=137930351.1.3 Bus2=137930411.1.3 LineCode=2_JCN_2PH_12KV_2 Length=0.190215 units=km
New Line.P5050444-1$ND41196591 phases=2 Bus1=41084257.2.3 Bus2=41196591.2.3 LineCode=350_AL_2PH_12KV_2 Length=0.012106 units=km
New Line.169534243$P5348085-1 phases=2 Bus1=169534246.2.3 Bus2=41154513.2.3 LineCode=350_AL_2PH_12KV_2 Length=0.002373 units=km
New Line.P5519965-2$105651186 phases=2 Bus1=105651189.1.2 Bus2=98783393.1.2 LineCode=2_CLP_2PH_12KV_2 Length=0.005215 units=km
New Line.ND108643012$P5403003-2 phases=2 Bus1=28188399.1.2 Bus2=108643012.1.2 LineCode=2_CLP_2PH_12KV_2 Length=0.10365 units=km
New Line.136515354$136515366 phases=2 Bus1=136515357.1.3 Bus2=136515369.1.3 LineCode=2_JCN_2PH_12KV_2 Length=0.037171 units=km
New Line.P5429766-2$101468538 phases=2 Bus1=101468541.1.3 Bus2=28096708.1.3 LineCode=1/0_AL_2PH_12KV_2 Length=0.005217 units=km
New Line.P5163130-1$ND41196591 phases=2 Bus1=41196591.2.3 Bus2=41084329.2.3 LineCode=350_AL_2PH_12KV_2 Length=0.205351 units=km
New Line.P5050434-2$ND41196591 phases=2 Bus1=41196591.2.3 Bus2=41084410.2.3 LineCode=350_AL_2PH_12KV_2 Length=0.201613 units=km
New Line.99415478$P5519979-2 phases=2 Bus1=99415481.1.2 Bus2=94889518.1.2 LineCode=2_CLP_2PH_12KV_2 Length=0.02548 units=km
New Line.P5520059-2$106389497 phases=2 Bus1=99562541.1.2 Bus2=106389499.1.2 LineCode=2_CLP_2PH_12KV_2 Length=0.022051 units=km
New Line.ND108643012$108643100 phases=2 Bus1=108643012.1.2 Bus2=108643102.1.2 LineCode=2_CLP_2PH_12KV_2 Length=0.259553 units=km
New Line.111168870$111168848 phases=3 Bus1=111168843.1.2.3 Bus2=111168861.1.2.3 LineCode=2_CLP_3PH_12KV_3 Length=0.036332 units=km
New Line.137930399$137930409 phases=2 Bus1=137930412.1.3 Bus2=137930402.1.3 LineCode=2_JCN_2PH_12KV_2 Length=0.029284 units=km
New Line.P5403005-1$ND108643012 phases=2 Bus1=108643012.1.2 Bus2=28188462.1.2 LineCode=2_CLP_2PH_12KV_2 Length=0.100736 units=km
New Line.137930369$P5417013-2 phases=2 Bus1=137930372.1.3 Bus2=28188759.1.3 LineCode=2_JCN_2PH_12KV_2 Length=0.001311 units=km
New Line.105651213$P5519965-1 phases=2 Bus1=98783384.1.2 Bus2=105651216.1.2 LineCode=2_CLP_2PH_12KV_2 Length=0.004974 units=km
New Line.136515366$136515376 phases=2 Bus1=136515368.1.3 Bus2=136515378.1.3 LineCode=2_JCN_2PH_12KV_2 Length=0.062708 units=km
New Line.169534231$P5348085-2 phases=2 Bus1=41154522.2.3 Bus2=169534234.2.3 LineCode=350_AL_2PH_12KV_2 Length=0.001919 units=km
New Line.P5429766-1$101468563 phases=2 Bus1=28096699.1.3 Bus2=101468566.1.3 LineCode=2_CLP_2PH_12KV_2 Length=0.006212 units=km
New Line.ND106389426$106389497 phases=2 Bus1=106389500.1.2 Bus2=106389426.1.2 LineCode=2_CLP_2PH_12KV_2 Length=0.102139 units=km
New Line.108643100$P5588567-1 phases=2 Bus1=108643103.1.2 Bus2=108642941.1.2 LineCode=2_CLP_2PH_12KV_2 Length=0.000986 units=km
New Line.111168870$111168887 phases=3 Bus1=111168873.1.2.3 Bus2=111168890.1.2.3 LineCode=2_CLP_3PH_12KV_3 Length=0.025116 units=km
New Line.137930399$137930389 phases=2 Bus1=137930401.1.3 Bus2=137930391.1.3 LineCode=2_JCN_2PH_12KV_2 Length=0.143243 units=km
New Line.P5519979-1$99415505 phases=2 Bus1=94889509.1.2 Bus2=99415508.1.2 LineCode=2_CLP_2PH_12KV_2 Length=0.011814 units=km
New Line.105651213$105651238 phases=2 Bus1=105651215.1.2 Bus2=105651240.1.2 LineCode=2_CLP_2PH_12KV_2 Length=0.203872 units=km
New Line.ND106389426$106389465 phases=2 Bus1=106389426.1.2 Bus2=106389468.1.2 LineCode=2_CLP_2PH_12KV_2 Length=0.029089 units=km
New Line.136515376$136515386 phases=2 Bus1=136515379.1.3 Bus2=136515389.1.3 LineCode=2_JCN_2PH_12KV_2 Length=0.044403 units=km
New Line.P5403006-1$P5403005-2 phases=2 Bus1=28188471.1.2 Bus2=28188534.1.2 LineCode=2_CLP_2PH_12KV_2 Length=0.201041 units=km
New Line.P5383625-1$169534231 phases=2 Bus1=169534233.2.3 Bus2=41154200.2.3 LineCode=350_AL_2PH_12KV_2 Length=0.539854 units=km
New Line.ND106389426$P5519987-2 phases=2 Bus1=106389426.1.2 Bus2=99562451.1.2 LineCode=2_CLP_2PH_12KV_2 Length=0.088838 units=km
New Line.101468563$101468511 phases=2 Bus1=101468565.1.3 Bus2=101468513.1.3 LineCode=2_CLP_2PH_12KV_2 Length=0.249942 units=km
New Line.111168887$111168904 phases=3 Bus1=111168882.1.2.3 Bus2=111168883.1.2.3 LineCode=2_CLP_3PH_12KV_3 Length=0.036336 units=km
New Line.137930389$P5588572-1 phases=2 Bus1=137930392.1.3 Bus2=137930566.1.3 LineCode=2_JCN_2PH_12KV_2 Length=0.003786 units=km
New Line.99415505$99415530 phases=2 Bus1=99415507.1.2 Bus2=99415532.1.2 LineCode=2_CLP_2PH_12KV_2 Length=0.066525 units=km
New Line.106389465$106389438 phases=2 Bus1=106389467.1.2 Bus2=106389440.1.2 LineCode=2_CLP_2PH_12KV_2 Length=0.127039 units=km
New Line.136515386$136515336 phases=2 Bus1=136515388.1.3 Bus2=136515338.1.3 LineCode=2_JCN_2PH_12KV_2 Length=0.074775 units=km
New Line.P5519966-2$105651238 phases=2 Bus1=105651241.1.2 Bus2=98783290.1.2 LineCode=2_CLP_2PH_12KV_2 Length=0.003335 units=km
New Line.P5403006-2$ND100179692 phases=2 Bus1=28188543.1.2 Bus2=100179692.1.2 LineCode=2_CLP_2PH_12KV_2 Length=0.112304 units=km
New Line.101468511$P5585801-2 phases=2 Bus1=101468514.1.3 Bus2=101468448.1.3 LineCode=2_CLP_2PH_12KV_2 Length=0.005379 units=km
New Line.111168904$P5585811-2 phases=3 Bus1=111168907.1.2.3 Bus2=111168673.1.2.3 LineCode=2_CLP_3PH_12KV_3 Length=0.0032 units=km
New Line.99415530$P5519989-2 phases=2 Bus1=99415533.1.2 Bus2=95409388.1.2 LineCode=2_CLP_2PH_12KV_2 Length=0.005258 units=km
New Line.ND100179692$100179756 phases=2 Bus1=100179692.1.2 Bus2=100179759.1.2 LineCode=2_CLP_2PH_12KV_2 Length=0.010344 units=km
New Line.ND100179692$100179781 phases=2 Bus1=100179692.1.2 Bus2=100179784.1.2 LineCode=2_CLP_2PH_12KV_2 Length=0.038607 units=km
New Line.106389438$P5588565-1 phases=2 Bus1=106389441.1.2 Bus2=106389349.1.2 LineCode=2_CLP_2PH_12KV_2 Length=0.020102 units=km
New Line.FD76405$245041873 phases=3 Bus1=245041792.1.2.3 Bus2=245041875.1.2.3 LineCode=1/0_JCN_3PH_12KV_3 Length=0.093738 units=km
New Line.PMS1916-1$4234701E phases=2 Bus1=28097347.1.3 Bus2=28097364.1.3 LineCode=1/0_AL_2PH_12KV_2 Length=0.073839 units=km
New Line.136515336$P5588586-2 phases=2 Bus1=136515339.1.3 Bus2=136515283.1.3 LineCode=2_JCN_2PH_12KV_2 Length=0.003655 units=km
New Line.100179781$100179731 phases=2 Bus1=100179783.1.2 Bus2=100179733.1.2 LineCode=2_CLP_2PH_12KV_2 Length=0.005451 units=km
New Line.242853303$P5585811-1 phases=2 Bus1=111168664.2.3 Bus2=242853306.2.3 LineCode=1/0_JCN_2PH_12KV_2 Length=0.004632 units=km
New Line.P5411032-2$100179756 phases=2 Bus1=100179758.1.2 Bus2=28188327.1.2 LineCode=2_CLP_2PH_12KV_2 Length=0.173033 units=km
New Line.P5519989-1$99415555 phases=2 Bus1=95409379.1.2 Bus2=99415558.1.2 LineCode=2_CLP_2PH_12KV_2 Length=0.008992 units=km
New Line.P5331648-2$P5348002-1 phases=2 Bus1=41154137.2.3 Bus2=41153849.2.3 LineCode=350_AL_2PH_12KV_2 Length=0.552195 units=km
New Line.95764046$P5520188-1 phases=2 Bus1=95764049.1.3 Bus2=95763971.1.3 LineCode=2_CLP_2PH_12KV_2 Length=0.004788 units=km
New Line.BS1556-T$101671219 phases=3 Bus1=41154927.1.2.3 Bus2=101671221.1.2.3 LineCode=1/0_AL_3PH_12KV_3 Length=0.083855 units=km
New Line.204858855$P5574526-2 phases=2 Bus1=204858858.1.2 Bus2=135501911.1.2 LineCode=2_JCN_2PH_12KV_2 Length=0.001747 units=km
New Line.211120694$211120706 phases=1 Bus1=211120697.2 Bus2=211120709.2 LineCode=1/0_JCN_1PH_12KV_1 Length=0.021245 units=km
New Line.P5386419-1$173741767 phases=2 Bus1=83307632.1.3 Bus2=173741769.1.3 LineCode=2_CLP_2PH_12KV_2 Length=0.201344 units=km
New Line.239957041$P5723057-1 phases=1 Bus1=239957044.1 Bus2=239957006.1 LineCode=1/0_JCN_1PH_12KV_1 Length=0.004653 units=km
New Line.253148997$P5520012-2 phases=2 Bus1=94698471.1.3 Bus2=253149000.1.3 LineCode=1/0_JCN_2PH_12KV_2 Length=0.004213 units=km
New Line.ND41226772$BF73365 phases=3 Bus1=41226772.1.2.3 Bus2=41194042.1.2.3 LineCode=1/0_AL_3PH_12KV_3 Length=0.015783 units=km
New Line.4559481E$215297679 phases=1 Bus1=84699759.1 Bus2=215297681.1 LineCode=2_CLP_1PH_12KV_1 Length=0.11643 units=km
New Line.P5050434-1$ND41227650 phases=2 Bus1=41084401.2.3 Bus2=41227650.2.3 LineCode=350_AL_2PH_12KV_2 Length=0.058079 units=km
New Line.2122296E$PMS1545-1 phases=2 Bus1=41100336.2.3 Bus2=41100352.2.3 LineCode=350_AL_2PH_12KV_2 Length=0.119369 units=km
New Line.197111786$P5431419-1 phases=3 Bus1=197111789.1.2.3 Bus2=41155871.1.2.3 LineCode=2_AL_3PH_12KV_3 Length=0.009388 units=km
New Line.183999009$P5519976-1 phases=2 Bus1=183999012.2.3 Bus2=94698562.2.3 LineCode=2_CLP_2PH_12KV_2 Length=0.001347 units=km
New Line.108770180$108770205 phases=2 Bus1=108770182.1.3 Bus2=108770207.1.3 LineCode=2_CLP_2PH_12KV_2 Length=0.210239 units=km
New Line.205031849$P5344443-1 phases=2 Bus1=41070416.2.3 Bus2=205031852.2.3 LineCode=1/0_AL_2PH_12KV_2 Length=0.000766 units=km
New Line.2122294E$223589556 phases=2 Bus1=41100543.1.3 Bus2=223589558.1.3 LineCode=350_AL_2PH_12KV_2 Length=0.142254 units=km
New Line.239282334$P5520154-1 phases=2 Bus1=98392751.1.3 Bus2=239282337.1.3 LineCode=1/0_JCN_2PH_12KV_2 Length=0.003047 units=km
New Line.PME1381-3$239956929 phases=3 Bus1=41120885.1.2.3 Bus2=239956931.1.2.3 LineCode=1/0_JCN_3PH_12KV_3 Length=0.110825 units=km
New Line.P5050444-2$194343194 phases=2 Bus1=194343196.2.3 Bus2=41084266.2.3 LineCode=350_AL_2PH_12KV_2 Length=0.08696 units=km
New Line.ND41195869$ND41246033 phases=3 Bus1=41195869.1.2.3 Bus2=41246033.1.2.3 LineCode=2_AL_3PH_12KV_3 Length=0.092281 units=km
New Line.242368362$242368374 phases=2 Bus1=242368377.1.3 Bus2=242368365.1.3 LineCode=1/0_JCN_2PH_12KV_2 Length=0.026361 units=km
New Line.190502095$PME1381-1 phases=2 Bus1=41120912.1.3 Bus2=190502097.1.3 LineCode=350_CLP_2PH_12KV_2 Length=0.076488 units=km
New Line.2377190E$P5386380-1 phases=3 Bus1=41068406.1.2.3 Bus2=41068422.1.2.3 LineCode=1/0_AL_3PH_12KV_3 Length=0.030893 units=km
New Line.P5417184-2$PMS1545-1 phases=2 Bus1=41100353.2.3 Bus2=41100483.2.3 LineCode=350_AL_2PH_12KV_2 Length=0.222566 units=km
New Line.PMS1383-1$PME1381-4 phases=2 Bus1=41120894.1.3 Bus2=41121131.1.3 LineCode=350_CLP_2PH_12KV_2 Length=0.033301 units=km
New Line.215297679$P5519822-1 phases=1 Bus1=215297682.1 Bus2=84699783.1 LineCode=2_CLP_1PH_12KV_1 Length=0.001687 units=km
New Line.108770205$108770230 phases=2 Bus1=108770208.1.3 Bus2=108770233.1.3 LineCode=2_CLP_2PH_12KV_2 Length=0.036537 units=km
New Line.183998997$P5519976-2 phases=2 Bus1=94698571.2.3 Bus2=183999000.2.3 LineCode=2_CLP_2PH_12KV_2 Length=0.002219 units=km
New Line.219581661$205031849 phases=2 Bus1=205031851.2.3 Bus2=219581663.2.3 LineCode=1/0_AL_2PH_12KV_2 Length=0.245427 units=km
New Line.239282425$239282334 phases=2 Bus1=239282336.1.3 Bus2=239282427.1.3 LineCode=1/0_JCN_2PH_12KV_2 Length=0.033412 units=km
New Line.239956929$ND239956987 phases=2 Bus1=239956932.1.2 Bus2=239956987.1.2 LineCode=1/0_JCN_2PH_12KV_2 Length=0.006484 units=km
New Line.242368362$242368384 phases=2 Bus1=242368364.1.3 Bus2=242368386.1.3 LineCode=1/0_JCN_2PH_12KV_2 Length=0.043461 units=km
New Line.223589556$PME1239-1 phases=2 Bus1=223589559.1.3 Bus2=41100559.1.3 LineCode=350_AL_2PH_12KV_2 Length=0.002619 units=km
New Line.P5402664-2$PMS1420-1 phases=2 Bus1=41054143.2.3 Bus2=41054273.2.3 LineCode=2_CLP_2PH_12KV_2 Length=0.157474 units=km
New Line.215297706$P5424278-1 phases=2 Bus1=215297709.2.3 Bus2=85725437.2.3 LineCode=2_CLP_2PH_12KV_2 Length=0.002377 units=km
New Line.ND41227759$2104141E phases=2 Bus1=41227759.1.2 Bus2=41083524.1.2 LineCode=4_ACSR_2PH_12KV_2 Length=0.106186 units=km
New Line.2233904E$2233905E phases=2 Bus1=41084074.1.3 Bus2=41084049.1.3 LineCode=4_ACSR_2PH_12KV_2 Length=0.100258 units=km
New Line.2223702E$2185337E phases=2 Bus1=41084799.1.3 Bus2=41084774.1.3 LineCode=4_ACSR_2PH_12KV_2 Length=0.100637 units=km
New Line.2185614E$2185616E phases=2 Bus1=41084849.1.2 Bus2=41084874.1.2 LineCode=4_ACSR_2PH_12KV_2 Length=0.194797 units=km
New Line.4106449E$BF75200 phases=2 Bus1=211794042.1.3 Bus2=41098081.1.3 LineCode=1/0_ACSR_2PH_12KV_2 Length=0.076088 units=km
New Line.2292789E$BF75196 phases=2 Bus1=211794079.1.2 Bus2=41132481.1.2 LineCode=4_ACSR_2PH_12KV_2 Length=0.163024 units=km
New Line.BF73825$4826947E phases=2 Bus1=166603995.1.3 Bus2=41156776.1.3 LineCode=4_ACSR_2PH_12KV_2 Length=0.049974 units=km
New Line.ND41227759$2122622E phases=2 Bus1=41227759.1.2 Bus2=41175531.1.2 LineCode=4_ACSR_2PH_12KV_2 Length=0.134618 units=km
New Line.PS0710$2122350E phases=3 Bus1=41175504.1.2.3 Bus2=41179138.1.2.3 LineCode=336_ACSR_3PH_12KV_3 Length=0.085991 units=km
New Line.ND41227739$ND41195954 phases=2 Bus1=41227739.1.2 Bus2=41195954.1.2 LineCode=4_ACSR_2PH_12KV_2 Length=0.199945 units=km
New Line.4304388E$ND41226977 phases=3 Bus1=41134333.1.2.3 Bus2=41226977.1.2.3 LineCode=336_ACSR_3PH_12KV_3 Length=0.128498 units=km
New Line.RCS0960$4020147E phases=3 Bus1=41023323.1.2.3 Bus2=41193299.1.2.3 LineCode=336_ACSR_3PH_12KV_3 Length=0.092833 units=km
New Line.RCS0960$ND41195522 phases=3 Bus1=41193298.1.2.3 Bus2=41195522.1.2.3 LineCode=336_ACSR_3PH_12KV_3 Length=0.001684 units=km
New Line.ND41195522$ND41227916 phases=3 Bus1=41195522.1.2.3 Bus2=41227916.1.2.3 LineCode=336_ACSR_3PH_12KV_3 Length=0.069289 units=km
New Line.ND41227916$4304354E phases=3 Bus1=41227916.1.2.3 Bus2=41134159.1.2.3 LineCode=336_ACSR_3PH_12KV_3 Length=0.102079 units=km
New Line.4304352E$ND41227916 phases=2 Bus1=41227916.1.2 Bus2=41193328.1.2 LineCode=4_ACSR_2PH_12KV_2 Length=0.005582 units=km
New Line.4304354E$ND41194763 phases=3 Bus1=41134159.1.2.3 Bus2=41194763.1.2.3 LineCode=336_ACSR_3PH_12KV_3 Length=0.051651 units=km
New Line.ND41194763$4304356E phases=3 Bus1=41194763.1.2.3 Bus2=41134188.1.2.3 LineCode=336_ACSR_3PH_12KV_3 Length=0.054653 units=km
New Line.4304352E$2233979E phases=2 Bus1=41193327.1.2 Bus2=41135098.1.2 LineCode=4_ACSR_2PH_12KV_2 Length=0.043009 units=km
New Line.2233979E$2233981E phases=2 Bus1=41135098.1.2 Bus2=41023370.1.2 LineCode=4_ACSR_2PH_12KV_2 Length=0.148932 units=km
New Line.4329247E$ND41195628 phases=2 Bus1=41195628.1.2 Bus2=41194777.1.2 LineCode=4_ACSR_2PH_12KV_2 Length=0.002006 units=km
New Line.RCS0116$ND41195490 phases=3 Bus1=41178941.1.2.3 Bus2=41195490.1.2.3 LineCode=336_ACSR_3PH_12KV_3 Length=0.000265 units=km
New Line.ND293456732$4304360E phases=3 Bus1=293456732.1.2.3 Bus2=41134217.1.2.3 LineCode=336_ACSR_3PH_12KV_3 Length=0.057631 units=km
New Line.ND41230042$BF75216 phases=2 Bus1=41230042.2.3 Bus2=237862769.2.3 LineCode=4_ACSR_2PH_12KV_2 Length=0.00499 units=km
New Line.4329247E$2293664E phases=2 Bus1=41194776.1.2 Bus2=41023445.1.2 LineCode=4_ACSR_2PH_12KV_2 Length=0.140353 units=km
New Line.2293664E$2264157E phases=2 Bus1=41023445.1.2 Bus2=41023420.1.2 LineCode=4_ACSR_2PH_12KV_2 Length=0.094629 units=km
New Line.2264157E$4042572E phases=2 Bus1=41023420.1.2 Bus2=41023395.1.2 LineCode=4_ACSR_2PH_12KV_2 Length=0.071965 units=km
New Line.2155079E$BF75216 phases=2 Bus1=237862770.2.3 Bus2=41082516.2.3 LineCode=4_ACSR_2PH_12KV_2 Length=0.100881 units=km
New Line.ND41196033$BF73777 phases=2 Bus1=41196033.1.3 Bus2=41194902.1.3 LineCode=1/0_ACSR_2PH_12KV_2 Length=0.004055 units=km
New Line.2155079E$2293651E phases=2 Bus1=41082516.2.3 Bus2=41082491.2.3 LineCode=4_ACSR_2PH_12KV_2 Length=0.098164 units=km
New Line.ND41229521$2122377E phases=3 Bus1=41229521.1.2.3 Bus2=41082718.1.2.3 LineCode=336_ACSR_3PH_12KV_3 Length=0.083011 units=km
New Line.ND41229521$BF73776 phases=2 Bus1=41229521.1.2 Bus2=41194863.1.2 LineCode=1/0_ACSR_2PH_12KV_2 Length=0.006583 units=km
New Line.4503420E$ND41228740 phases=3 Bus1=41134246.1.2.3 Bus2=41228740.1.2.3 LineCode=1/0_ACSR_3PH_12KV_3 Length=0.008573 units=km
New Line.BF73777$4185754E phases=2 Bus1=41194903.1.3 Bus2=41082616.1.3 LineCode=1/0_ACSR_2PH_12KV_2 Length=0.052449 units=km
New Line.2122377E$2122376E phases=3 Bus1=41082718.1.2.3 Bus2=41082747.1.2.3 LineCode=336_ACSR_3PH_12KV_3 Length=0.085059 units=km
New Line.4185754E$4909593E phases=2 Bus1=41082616.1.3 Bus2=236376928.1.3 LineCode=4_ACSR_2PH_12KV_2 Length=0.082259 units=km
New Line.BF73776$465654S phases=2 Bus1=41194864.1.2 Bus2=41123147.1.2 LineCode=1/0_ACSR_2PH_12KV_2 Length=0.081628 units=km
New Line.2122376E$ND41228290 phases=3 Bus1=41082747.1.2.3 Bus2=41228290.1.2.3 LineCode=336_ACSR_3PH_12KV_3 Length=0.099371 units=km
New Line.ND41246861$4304371E phases=3 Bus1=41246861.1.2.3 Bus2=90609039.1.2.3 LineCode=336_ACSR_3PH_12KV_3 Length=0.045014 units=km
New Line.465654S$465655S phases=2 Bus1=41123147.1.2 Bus2=41082666.1.2 LineCode=4_ACSR_2PH_12KV_2 Length=0.065254 units=km
New Line.4616029E$ND41228290 phases=3 Bus1=41228290.1.2.3 Bus2=41122843.1.2.3 LineCode=1/0_ACSR_3PH_12KV_3 Length=0.037802 units=km
New Line.ND41228290$463831S phases=3 Bus1=41228290.1.2.3 Bus2=41122970.1.2.3 LineCode=336_ACSR_3PH_12KV_3 Length=0.52161 units=km
New Line.4909593E$4344280E phases=2 Bus1=236376928.1.3 Bus2=41177571.1.3 LineCode=4_ACSR_2PH_12KV_2 Length=0.089327 units=km
New Line.ND41228290$BF73820 phases=2 Bus1=41228290.1.2 Bus2=41178979.1.2 LineCode=4_ACSR_2PH_12KV_2 Length=0.099371 units=km
New Line.ND41193351$ND166604400 phases=3 Bus1=41193351.1.2.3 Bus2=166604400.1.2.3 LineCode=336_ACSR_3PH_12KV_3 Length=0.285167 units=km
New Line.4616029E$4773355E phases=3 Bus1=41122843.1.2.3 Bus2=41122818.1.2.3 LineCode=1/0_ACSR_3PH_12KV_3 Length=0.092985 units=km
New Line.465655S$465656S phases=2 Bus1=41082666.1.2 Bus2=41123172.1.2 LineCode=4_ACSR_2PH_12KV_2 Length=0.07935 units=km
New Line.463831S$ND41196297 phases=3 Bus1=41122970.1.2.3 Bus2=41196297.1.2.3 LineCode=336_ACSR_3PH_12KV_3 Length=0.015231 units=km
New Line.4344280E$FD76390 phases=2 Bus1=41177571.1.3 Bus2=94698846.1.3 LineCode=4_ACSR_2PH_12KV_2 Length=0.008614 units=km
New Line.PS0551$ND166604400 phases=3 Bus1=166604400.1.2.3 Bus2=164614726.1.2.3 LineCode=336_ACSR_3PH_12KV_3 Length=0.059753 units=km
New Line.BF73828$ND166604400 phases=2 Bus1=166604400.1.3 Bus2=166604127.1.3 LineCode=4_ACSR_2PH_12KV_2 Length=0.013282 units=km
New Line.4773355E$4085236E phases=3 Bus1=41122818.1.2.3 Bus2=237400002.1.2.3 LineCode=1/0_ACSR_3PH_12KV_3 Length=0.19091 units=km
New Line.465656S$2293844E phases=2 Bus1=41123172.1.2 Bus2=41082691.1.2 LineCode=4_ACSR_2PH_12KV_2 Length=0.089363 units=km
New Line.ND41196297$2122368E phases=3 Bus1=41196297.1.2.3 Bus2=41084151.1.2.3 LineCode=336_ACSR_3PH_12KV_3 Length=0.124938 units=km
New Line.4069384E$ND166604400 phases=3 Bus1=166604400.1.2.3 Bus2=41175756.1.2.3 LineCode=1/0_ACSR_3PH_12KV_3 Length=0.035719 units=km
New Line.ND41196297$BF73122 phases=2 Bus1=41196297.1.3 Bus2=41179018.1.3 LineCode=4_ACSR_2PH_12KV_2 Length=0.028526 units=km
New Line.BF73820$ND41196477 phases=2 Bus1=41178980.1.2 Bus2=41196477.1.2 LineCode=4_ACSR_2PH_12KV_2 Length=0.075901 units=km
New Line.2293844E$2293846E phases=2 Bus1=41082691.1.2 Bus2=108685124.1.2 LineCode=4_ACSR_2PH_12KV_2 Length=0.154553 units=km
New Line.2122368E$2122363E phases=3 Bus1=41084151.1.2.3 Bus2=242621300.1.2.3 LineCode=336_ACSR_3PH_12KV_3 Length=0.384804 units=km
New Line.4069384E$2299908E phases=3 Bus1=41175756.1.2.3 Bus2=41024083.1.2.3 LineCode=1/0_ACSR_3PH_12KV_3 Length=0.102626 units=km
New Line.4085236E$4773356E phases=3 Bus1=237400002.1.2.3 Bus2=41122868.1.2.3 LineCode=1/0_ACSR_3PH_12KV_3 Length=0.058026 units=km
New Line.ND41196477$4909728E phases=2 Bus1=41196477.1.2 Bus2=41177851.1.2 LineCode=4_ACSR_2PH_12KV_2 Length=0.174853 units=km
New Line.4304378E$PS0551 phases=3 Bus1=164614725.1.2.3 Bus2=108310017.1.2.3 LineCode=336_ACSR_3PH_12KV_3 Length=0.116899 units=km
New Line.2299908E$1600896E phases=3 Bus1=41024083.1.2.3 Bus2=164614705.1.2.3 LineCode=1/0_ACSR_3PH_12KV_3 Length=0.295056 units=km
New Line.4773356E$ND166604264 phases=3 Bus1=41122868.1.2.3 Bus2=166604264.1.2.3 LineCode=1/0_ACSR_3PH_12KV_3 Length=0.107662 units=km
New Line.ND211524673$1966414E phases=2 Bus1=211524673.2.3 Bus2=231911120.2.3 LineCode=4_ACSR_2PH_12KV_2 Length=0.022723 units=km
New Line.BF73122$4909594E phases=2 Bus1=41179019.1.3 Bus2=236918125.1.3 LineCode=4_ACSR_2PH_12KV_2 Length=0.19397 units=km
New Line.2154517E$BF73828 phases=2 Bus1=166604128.1.3 Bus2=41024008.1.3 LineCode=4_ACSR_2PH_12KV_2 Length=0.073326 units=km
New Line.2293846E$2293848E phases=2 Bus1=108685124.1.2 Bus2=41082641.1.2 LineCode=4_ACSR_2PH_12KV_2 Length=0.172053 units=km
New Line.4909728E$ND41195790 phases=2 Bus1=41177851.1.2 Bus2=41195790.1.2 LineCode=4_ACSR_2PH_12KV_2 Length=0.053652 units=km
...

! Switches
New Line.5400911:GS2789-2 phases=3 Bus1=144377809.1.2.3 Bus2=-777777144377809.1.2.3 switch=y r1=0.001 x1=0.001 r0=0.001 x0=0.001 Length=0.001 units=km enabled=false
New Line.4265490E:RAR0792 phases=3 Bus1=41157319.1.2.3 Bus2=41157318.1.2.3 switch=y r1=0.001 x1=0.001 r0=0.001 x0=0.001 Length=0.001 units=km
New Line.4693559E:RAR0965 phases=3 Bus1=108082406.1.2.3 Bus2=108082407.1.2.3 switch=y r1=0.001 x1=0.001 r0=0.001 x0=0.001 Length=0.001 units=km
New Line.4693558E:RAR0964 phases=3 Bus1=108082556.1.2.3 Bus2=108082557.1.2.3 switch=y r1=0.001 x1=0.001 r0=0.001 x0=0.001 Length=0.001 units=km
New Line.RAR0964$PDRAR0964-D phases=3 Bus1=108082557.1.2.3 Bus2=108082569.1.2.3 switch=y r1=0.001 x1=0.001 r0=0.001 x0=0.001 Length=0.001 units=km
New Line.118488898 phases=2 Bus1=118488901.2.3 Bus2=118488900.2.3 switch=y r1=0.001 x1=0.001 r0=0.001 x0=0.001 Length=0.001 units=km
New Line.219581649 phases=2 Bus1=219581652.2.3 Bus2=219581651.2.3 switch=y r1=0.001 x1=0.001 r0=0.001 x0=0.001 Length=0.001 units=km
New Line.239957041 phases=1 Bus1=239957043.1 Bus2=239957044.1 switch=y r1=0.001 x1=0.001 r0=0.001 x0=0.001 Length=0.001 units=km
New Line.253149049 phases=2 Bus1=253149051.1.3 Bus2=253149052.1.3 switch=y r1=0.001 x1=0.001 r0=0.001 x0=0.001 Length=0.001 units=km
New Line.95764046 phases=2 Bus1=95764048.1.3 Bus2=95764049.1.3 switch=y r1=0.001 x1=0.001 r0=0.001 x0=0.001 Length=0.001 units=km
New Line.108770230 phases=2 Bus1=108770233.1.3 Bus2=108770232.1.3 switch=y r1=0.001 x1=0.001 r0=0.001 x0=0.001 Length=0.001 units=km
New Line.183998997 phases=2 Bus1=183999000.2.3 Bus2=183998999.2.3 switch=y r1=0.001 x1=0.001 r0=0.001 x0=0.001 Length=0.001 units=km
New Line.219581661 phases=2 Bus1=219581663.2.3 Bus2=219581664.2.3 switch=y r1=0.001 x1=0.001 r0=0.001 x0=0.001 Length=0.001 units=km
New Line.239282425 phases=2 Bus1=239282427.1.3 Bus2=239282428.1.3 switch=y r1=0.001 x1=0.001 r0=0.001 x0=0.001 Length=0.001 units=km
New Line.242368384 phases=2 Bus1=242368386.1.3 Bus2=242368387.1.3 switch=y r1=0.001 x1=0.001 r0=0.001 x0=0.001 Length=0.001 units=km
New Line.194343206 phases=2 Bus1=194343208.2.3 Bus2=194343209.2.3 switch=y r1=0.001 x1=0.001 r0=0.001 x0=0.001 Length=0.001 units=km
New Line.239956941 phases=1 Bus1=239956944.1 Bus2=239956943.1 switch=y r1=0.001 x1=0.001 r0=0.001 x0=0.001 Length=0.001 units=km
New Line.239956951 phases=2 Bus1=239956954.1.2 Bus2=239956953.1.2 switch=y r1=0.001 x1=0.001 r0=0.001 x0=0.001 Length=0.001 units=km
New Line.108770255 phases=2 Bus1=108770257.1.3 Bus2=108770258.1.3 switch=y r1=0.001 x1=0.001 r0=0.001 x0=0.001 Length=0.001 units=km
New Line.148724615 phases=2 Bus1=148724617.2.3 Bus2=148724618.2.3 switch=y r1=0.001 x1=0.001 r0=0.001 x0=0.001 Length=0.001 units=km
New Line.190502132 phases=2 Bus1=190502134.1.3 Bus2=190502135.1.3 switch=y r1=0.001 x1=0.001 r0=0.001 x0=0.001 Length=0.001 units=km
New Line.223589568 phases=2 Bus1=223589571.1.3 Bus2=223589570.1.3 switch=y r1=0.001 x1=0.001 r0=0.001 x0=0.001 Length=0.001 units=km
New Line.5344442:BS1004-R phases=2 Bus1=41070094.2.3 Bus2=41070093.2.3 switch=y r1=0.001 x1=0.001 r0=0.001 x0=0.001 Length=0.001 units=km
New Line.5344442:BS1004-L phases=2 Bus1=41070094.2.3 Bus2=41070110.2.3 switch=y r1=0.001 x1=0.001 r0=0.001 x0=0.001 Length=0.001 units=km
New Line.4069636E:RCS0814 phases=3 Bus1=41193264.1.2.3 Bus2=41193265.1.2.3 switch=y r1=0.001 x1=0.001 r0=0.001 x0=0.001 Length=0.001 units=km
New Line.4304415E:PS0554 phases=3 Bus1=166084460.1.2.3 Bus2=166084459.1.2.3 switch=y r1=0.001 x1=0.001 r0=0.001 x0=0.001 Length=0.001 units=km
New Line.5723057:P5723057-1 phases=1 Bus1=239957006.1 Bus2=239957007.1 switch=y r1=0.001 x1=0.001 r0=0.001 x0=0.001 Length=0.001 units=km
New Line.4234708E:PS0871 phases=3 Bus1=28195139.1.2.3 Bus2=28195138.1.2.3 switch=y r1=0.001 x1=0.001 r0=0.001 x0=0.001 Length=0.001 units=km
New Line.4304297E:4304297ET1 phases=2 Bus1=41193651.2.3 Bus2=41193652.2.3 switch=y r1=0.001 x1=0.001 r0=0.001 x0=0.001 Length=0.001 units=km
New Line.5386421:PME1381-2 phases=3 Bus1=41120903.1.2.3 Bus2=41120876.1.2.3 switch=y r1=0.001 x1=0.001 r0=0.001 x0=0.001 Length=0.001 units=km
New Line.4693559E:PDRAR0965-B phases=3 Bus1=108082412.1.2.3 Bus2=108082413.1.2.3 switch=y r1=0.001 x1=0.001 r0=0.001 x0=0.001 Length=0.001 units=km
New Line.4693559E:PDRAR0965-C phases=3 Bus1=108082425.1.2.3 Bus2=108082443.1.2.3 switch=y r1=0.001 x1=0.001 r0=0.001 x0=0.001 Length=0.001 units=km enabled=false
New Line.5648016:RCSG923-2 phases=3 Bus1=177611089.1.2.3 Bus2=177611108.1.2.3 switch=y r1=0.001 x1=0.001 r0=0.001 x0=0.001 Length=0.001 units=km
New Line.4265490E:RAR0792_B phases=3 Bus1=41157324.1.2.3 Bus2=41157325.1.2.3 switch=y r1=0.001 x1=0.001 r0=0.001 x0=0.001 Length=0.001 units=km
New Line.5648016:RCSG923-3 phases=3 Bus1=177611095.1.2.3 Bus2=177611124.1.2.3 switch=y r1=0.001 x1=0.001 r0=0.001 x0=0.001 Length=0.001 units=km
New Line.5648016:RCSG923-4 phases=3 Bus1=177611101.1.2.3 Bus2=177611132.1.2.3 switch=y r1=0.001 x1=0.001 r0=0.001 x0=0.001 Length=0.001 units=km
New Line.4693559E:PDRAR0965-D phases=3 Bus1=108082418.1.2.3 Bus2=108082419.1.2.3 switch=y r1=0.001 x1=0.001 r0=0.001 x0=0.001 Length=0.001 units=km
New Line.4774098E:PS0556 phases=3 Bus1=166392228.1.2.3 Bus2=166392227.1.2.3 switch=y r1=0.001 x1=0.001 r0=0.001 x0=0.001 Length=0.001 units=km
New Line.4693558E:PDRAR0964-B phases=3 Bus1=108082562.1.2.3 Bus2=108082563.1.2.3 switch=y r1=0.001 x1=0.001 r0=0.001 x0=0.001 Length=0.001 units=km
New Line.4693558E:PDRAR0964-C phases=3 Bus1=108082575.1.2.3 Bus2=108082593.1.2.3 switch=y r1=0.001 x1=0.001 r0=0.001 x0=0.001 Length=0.001 units=km enabled=false
New Line.5648016:RCSG923-1 phases=3 Bus1=177611116.1.2.3 Bus2=177611088.1.2.3 switch=y r1=0.001 x1=0.001 r0=0.001 x0=0.001 Length=0.001 units=km
New Line.5386824:P5386824-2 phases=2 Bus1=28157310.1.3 Bus2=28157302.1.3 switch=y r1=0.001 x1=0.001 r0=0.001 x0=0.001 Length=0.001 units=km
New Line.5386824:P5386824-1 phases=2 Bus1=28157302.1.3 Bus2=28157301.1.3 switch=y r1=0.001 x1=0.001 r0=0.001 x0=0.001 Length=0.001 units=km
New Line.4770668E:RCS0388 phases=3 Bus1=140749235.1.2.3 Bus2=140749236.1.2.3 switch=y r1=0.001 x1=0.001 r0=0.001 x0=0.001 Length=0.001 units=km enabled=false
New Line.5386421:P5386421-2 phases=1 Bus1=239957206.1 Bus2=239957214.1 switch=y r1=0.001 x1=0.001 r0=0.001 x0=0.001 Length=0.001 units=km
New Line.2155760E:RCS0557 phases=3 Bus1=41178605.1.2.3 Bus2=41178606.1.2.3 switch=y r1=0.001 x1=0.001 r0=0.001 x0=0.001 Length=0.001 units=km enabled=false
New Line.118488872 phases=2 Bus1=118488874.2.3 Bus2=118488875.2.3 switch=y r1=0.001 x1=0.001 r0=0.001 x0=0.001 Length=0.001 units=km
New Line.183353453 phases=2 Bus1=183353455.1.3 Bus2=183353456.1.3 switch=y r1=0.001 x1=0.001 r0=0.001 x0=0.001 Length=0.001 units=km
New Line.190502083 phases=2 Bus1=190502086.1.3 Bus2=190502085.1.3 switch=y r1=0.001 x1=0.001 r0=0.001 x0=0.001 Length=0.001 units=km
New Line.198314466 phases=2 Bus1=198314468.1.3 Bus2=198314469.1.3 switch=y r1=0.001 x1=0.001 r0=0.001 x0=0.001 Length=0.001 units=km
New Line.239957071 phases=2 Bus1=239957073.1.2 Bus2=239957074.1.2 switch=y r1=0.001 x1=0.001 r0=0.001 x0=0.001 Length=0.001 units=km
New Line.205031812 phases=2 Bus1=205031814.2.3 Bus2=205031815.2.3 switch=y r1=0.001 x1=0.001 r0=0.001 x0=0.001 Length=0.001 units=km
New Line.253149019 phases=2 Bus1=253149022.1.3 Bus2=253149021.1.3 switch=y r1=0.001 x1=0.001 r0=0.001 x0=0.001 Length=0.001 units=km
New Line.173741779 phases=2 Bus1=173741782.1.3 Bus2=173741781.1.3 switch=y r1=0.001 x1=0.001 r0=0.001 x0=0.001 Length=0.001 units=km
New Line.197111786 phases=3 Bus1=197111788.1.2.3 Bus2=197111789.1.2.3 switch=y r1=0.001 x1=0.001 r0=0.001 x0=0.001 Length=0.001 units=km
New Line.5402664:P5402664-2 phases=2 Bus1=41054273.2.3 Bus2=41054265.2.3 switch=y r1=0.001 x1=0.001 r0=0.001 x0=0.001 Length=0.001 units=km
New Line.5609394:P5609394-1 phases=1 Bus1=211120935.3 Bus2=211120936.3 switch=y r1=0.001 x1=0.001 r0=0.001 x0=0.001 Length=0.001 units=km
New Line.5332054:P5332054-2 phases=2 Bus1=41054489.2.3 Bus2=41054481.2.3 switch=y r1=0.001 x1=0.001 r0=0.001 x0=0.001 Length=0.001 units=km
New Line.5386706:P5386706-2 phases=2 Bus1=41099293.1.3 Bus2=41099301.1.3 switch=y r1=0.001 x1=0.001 r0=0.001 x0=0.001 Length=0.001 units=km
New Line.5332054:P5332054-1 phases=2 Bus1=41054481.2.3 Bus2=41054480.2.3 switch=y r1=0.001 x1=0.001 r0=0.001 x0=0.001 Length=0.001 units=km
New Line.5411068:P5411068-2 phases=2 Bus1=41054201.2.3 Bus2=41054193.2.3 switch=y r1=0.001 x1=0.001 r0=0.001 x0=0.001 Length=0.001 units=km
New Line.5573678:P5573678-1 phases=2 Bus1=239274138.2.3 Bus2=239274139.2.3 switch=y r1=0.001 x1=0.001 r0=0.001 x0=0.001 Length=0.001 units=km
New Line.5588568:P5588568-2 phases=2 Bus1=109123991.1.3 Bus2=109123983.1.3 switch=y r1=0.001 x1=0.001 r0=0.001 x0=0.001 Length=0.001 units=km
New Line.4616757E:4616757E phases=2 Bus1=98392722.1.3 Bus2=98392723.1.3 switch=y r1=0.001 x1=0.001 r0=0.001 x0=0.001 Length=0.001 units=km
New Line.4123178E:4123178E phases=3 Bus1=41120837.1.2.3 Bus2=41120838.1.2.3 switch=y r1=0.001 x1=0.001 r0=0.001 x0=0.001 Length=0.001 units=km
New Line.2122336EP2:2122336E phases=3 Bus1=166265908.1.2.3 Bus2=166265907.1.2.3 switch=y r1=0.001 x1=0.001 r0=0.001 x0=0.001 Length=0.001 units=km
New Line.4106590E:4106590E phases=3 Bus1=41135491.1.2.3 Bus2=41135492.1.2.3 switch=y r1=0.001 x1=0.001 r0=0.001 x0=0.001 Length=0.001 units=km
New Line.4235046E:4235046E phases=2 Bus1=105491456.1.3 Bus2=105491457.1.3 switch=y r1=0.001 x1=0.001 r0=0.001 x0=0.001 Length=0.001 units=km
New Line.4218601E:4218601EPH phases=2 Bus1=41135131.1.2 Bus2=41135132.1.2 switch=y r1=0.001 x1=0.001 r0=0.001 x0=0.001 Length=0.001 units=km
New Line.4234705E:4234705E phases=3 Bus1=28096594.1.2.3 Bus2=28096593.1.2.3 switch=y r1=0.001 x1=0.001 r0=0.001 x0=0.001 Length=0.001 units=km
New Line.2122296E:2122296E phases=2 Bus1=41100335.2.3 Bus2=41100336.2.3 switch=y r1=0.001 x1=0.001 r0=0.001 x0=0.001 Length=0.001 units=km
New Line.4559481E:4559481E phases=2 Bus1=84699758.1.3 Bus2=84699759.1.3 switch=y r1=0.001 x1=0.001 r0=0.001 x0=0.001 Length=0.001 units=km
New Line.4045559E:4045559E phases=2 Bus1=41099153.1.3 Bus2=41099154.1.3 switch=y r1=0.001 x1=0.001 r0=0.001 x0=0.001 Length=0.001 units=km
New Line.4235043E:4235043E phases=2 Bus1=94837740.1.2 Bus2=94837741.1.2 switch=y r1=0.001 x1=0.001 r0=0.001 x0=0.001 Length=0.001 units=km
New Line.4235040E:4235040E phases=2 Bus1=28096938.1.2 Bus2=28096939.1.2 switch=y r1=0.001 x1=0.001 r0=0.001 x0=0.001 Length=0.001 units=km
New Line.4265816E:PH816 phases=2 Bus1=242368299.1.3 Bus2=242368300.1.3 switch=y r1=0.001 x1=0.001 r0=0.001 x0=0.001 Length=0.001 units=km
New Line.5517798:P5517798-1 phases=2 Bus1=84201949.1.3 Bus2=84201950.1.3 switch=y r1=0.001 x1=0.001 r0=0.001 x0=0.001 Length=0.001 units=km
New Line.5609469:P5609469-1 phases=2 Bus1=228200387.1.3 Bus2=228200388.1.3 switch=y r1=0.001 x1=0.001 r0=0.001 x0=0.001 Length=0.001 units=km
New Line.5423854:P5423854-1 phases=2 Bus1=41099789.2.3 Bus2=41099790.2.3 switch=y r1=0.001 x1=0.001 r0=0.001 x0=0.001 Length=0.001 units=km
New Line.5423853:P5423853-2 phases=2 Bus1=41099920.2.3 Bus2=41099912.2.3 switch=y r1=0.001 x1=0.001 r0=0.001 x0=0.001 Length=0.001 units=km
New Line.5386431:P5386431-1 phases=2 Bus1=41084545.2.3 Bus2=41084546.2.3 switch=y r1=0.001 x1=0.001 r0=0.001 x0=0.001 Length=0.001 units=km
New Line.5585809:P5585809-1 phases=2 Bus1=106474931.1.3 Bus2=106474932.1.3 switch=y r1=0.001 x1=0.001 r0=0.001 x0=0.001 Length=0.001 units=km
New Line.5386431:P5386431-2 phases=2 Bus1=41084546.2.3 Bus2=41084554.2.3 switch=y r1=0.001 x1=0.001 r0=0.001 x0=0.001 Length=0.001 units=km
New Line.5348094:P5348094-2 phases=2 Bus1=41070569.2.3 Bus2=41070561.2.3 switch=y r1=0.001 x1=0.001 r0=0.001 x0=0.001 Length=0.001 units=km
New Line.5423853:P5423853-1 phases=2 Bus1=41099912.2.3 Bus2=41099911.2.3 switch=y r1=0.001 x1=0.001 r0=0.001 x0=0.001 Length=0.001 units=km
New Line.5575013:P5575013-2 phases=2 Bus1=41070273.2.3 Bus2=41070281.2.3 switch=y r1=0.001 x1=0.001 r0=0.001 x0=0.001 Length=0.001 units=km
New Line.5386488:P5386488-1 phases=2 Bus1=41100898.1.3 Bus2=41100897.1.3 switch=y r1=0.001 x1=0.001 r0=0.001 x0=0.001 Length=0.001 units=km
New Line.5568891:P5568891-1 phases=2 Bus1=118488762.2.3 Bus2=118488763.2.3 switch=y r1=0.001 x1=0.001 r0=0.001 x0=0.001 Length=0.001 units=km
New Line.5309775:P5309775-1 phases=2 Bus1=41153984.2.3 Bus2=41153985.2.3 switch=y r1=0.001 x1=0.001 r0=0.001 x0=0.001 Length=0.001 units=km
New Line.5348002:P5348002-1 phases=2 Bus1=41153849.2.3 Bus2=41153850.2.3 switch=y r1=0.001 x1=0.001 r0=0.001 x0=0.001 Length=0.001 units=km
New Line.5520188:P5520188-1 phases=2 Bus1=95763971.1.3 Bus2=95763972.1.3 switch=y r1=0.001 x1=0.001 r0=0.001 x0=0.001 Length=0.001 units=km
New Line.5430229:P5430229-2 phases=2 Bus1=41084626.2.3 Bus2=41084618.2.3 switch=y r1=0.001 x1=0.001 r0=0.001 x0=0.001 Length=0.001 units=km
New Line.5411083:P5411083-1 phases=2 Bus1=41084689.2.3 Bus2=41084690.2.3 switch=y r1=0.001 x1=0.001 r0=0.001 x0=0.001 Length=0.001 units=km
New Line.5574526:P5574526-2 phases=2 Bus1=135501911.1.2 Bus2=135501903.1.2 switch=y r1=0.001 x1=0.001 r0=0.001 x0=0.001 Length=0.001 units=km
New Line.5348002:P5348002-2 phases=2 Bus1=41153850.2.3 Bus2=41153858.2.3 switch=y r1=0.001 x1=0.001 r0=0.001 x0=0.001 Length=0.001 units=km
New Line.5520188:P5520188-2 phases=2 Bus1=95763972.1.3 Bus2=95763980.1.3 switch=y r1=0.001 x1=0.001 r0=0.001 x0=0.001 Length=0.001 units=km
New Line.5430229:P5430229-1 phases=2 Bus1=41084618.2.3 Bus2=41084617.2.3 switch=y r1=0.001 x1=0.001 r0=0.001 x0=0.001 Length=0.001 units=km
New Line.5411032:P5411032-2 phases=2 Bus1=28188327.1.2 Bus2=28188319.1.2 switch=y r1=0.001 x1=0.001 r0=0.001 x0=0.001 Length=0.001 units=km
New Line.5585797:P5585797-1 phases=2 Bus1=100179621.1.2 Bus2=100179622.1.2 switch=y r1=0.001 x1=0.001 r0=0.001 x0=0.001 Length=0.001 units=km
New Line.5574156:P5574156-2 phases=2 Bus1=242853346.2.3 Bus2=242853338.2.3 switch=y r1=0.001 x1=0.001 r0=0.001 x0=0.001 Length=0.001 units=km
New Line.5585796:P5585796-2 phases=2 Bus1=99415415.1.2 Bus2=99415407.1.2 switch=y r1=0.001 x1=0.001 r0=0.001 x0=0.001 Length=0.001 units=km
New Line.5574154:P5574154-1 phases=3 Bus1=245041838.1.2.3 Bus2=245041839.1.2.3 switch=y r1=0.001 x1=0.001 r0=0.001 x0=0.001 Length=0.001 units=km
New Line.5383612:P5383612-1 phases=2 Bus1=41070200.2.3 Bus2=41070201.2.3 switch=y r1=0.001 x1=0.001 r0=0.001 x0=0.001 Length=0.001 units=km
New Line.5386760:P5386760-2 phases=2 Bus1=41100978.1.3 Bus2=41100970.1.3 switch=y r1=0.001 x1=0.001 r0=0.001 x0=0.001 Length=0.001 units=km
New Line.5386761:P5386761-1 phases=2 Bus1=41100754.1.3 Bus2=41100753.1.3 switch=y r1=0.001 x1=0.001 r0=0.001 x0=0.001 Length=0.001 units=km
New Line.5331647:P5331647-1 phases=2 Bus1=41154056.2.3 Bus2=41154057.2.3 switch=y r1=0.001 x1=0.001 r0=0.001 x0=0.001 Length=0.001 units=km
New Line.5331647:P5331647-2 phases=2 Bus1=41154057.2.3 Bus2=41154065.2.3 switch=y r1=0.001 x1=0.001 r0=0.001 x0=0.001 Length=0.001 units=km
New Line.5386762:P5386762-1 phases=2 Bus1=41100681.1.3 Bus2=41100682.1.3 switch=y r1=0.001 x1=0.001 r0=0.001 x0=0.001 Length=0.001 units=km
New Line.5585809:P5585809-2 phases=2 Bus1=106474932.1.3 Bus2=106474940.1.3 switch=y r1=0.001 x1=0.001 r0=0.001 x0=0.001 Length=0.001 units=km
New Line.5348094:P5348094-1 phases=2 Bus1=41070561.2.3 Bus2=41070560.2.3 switch=y r1=0.001 x1=0.001 r0=0.001 x0=0.001 Length=0.001 units=km
New Line.5344443:P5344443-2 phases=2 Bus1=41070425.2.3 Bus2=41070417.2.3 switch=y r1=0.001 x1=0.001 r0=0.001 x0=0.001 Length=0.001 units=km
New Line.5520154:P5520154-2 phases=2 Bus1=98392760.1.3 Bus2=98392752.1.3 switch=y r1=0.001 x1=0.001 r0=0.001 x0=0.001 Length=0.001 units=km
New Line.5163188:P5163188-1 phases=2 Bus1=41084473.2.3 Bus2=41084474.2.3 switch=y r1=0.001 x1=0.001 r0=0.001 x0=0.001 Length=0.001 units=km
New Line.5332053:P5332053-2 phases=2 Bus1=41054417.2.3 Bus2=41054409.2.3 switch=y r1=0.001 x1=0.001 r0=0.001 x0=0.001 Length=0.001 units=km
New Line.5411062:P5411062-2 phases=2 Bus1=41099179.1.3 Bus2=41099171.1.3 switch=y r1=0.001 x1=0.001 r0=0.001 x0=0.001 Length=0.001 units=km
New Line.5332053:P5332053-1 phases=2 Bus1=41054409.2.3 Bus2=41054408.2.3 switch=y r1=0.001 x1=0.001 r0=0.001 x0=0.001 Length=0.001 units=km
New Line.5411062:P5411062-1 phases=2 Bus1=41099171.1.3 Bus2=41099170.1.3 switch=y r1=0.001 x1=0.001 r0=0.001 x0=0.001 Length=0.001 units=km
New Line.5386706:P5386706-1 phases=2 Bus1=41099292.1.3 Bus2=41099293.1.3 switch=y r1=0.001 x1=0.001 r0=0.001 x0=0.001 Length=0.001 units=km
New Line.5386430:P5386430-1 phases=2 Bus1=41177741.2.3 Bus2=41177742.2.3 switch=y r1=0.001 x1=0.001 r0=0.001 x0=0.001 Length=0.001 units=km
New Line.5402664:P5402664-1 phases=2 Bus1=41054265.2.3 Bus2=41054264.2.3 switch=y r1=0.001 x1=0.001 r0=0.001 x0=0.001 Length=0.001 units=km
New Line.5386430:P5386430-2 phases=2 Bus1=41177742.2.3 Bus2=41177750.2.3 switch=y r1=0.001 x1=0.001 r0=0.001 x0=0.001 Length=0.001 units=km
New Line.5424268:P5424268-2 phases=2 Bus1=73345881.2.3 Bus2=73345873.2.3 switch=y r1=0.001 x1=0.001 r0=0.001 x0=0.001 Length=0.001 units=km
New Line.5414356:P5414356-2 phases=2 Bus1=41054345.2.3 Bus2=41054337.2.3 switch=y r1=0.001 x1=0.001 r0=0.001 x0=0.001 Length=0.001 units=km
New Line.5585790:P5585790-2 phases=2 Bus1=100398771.1.3 Bus2=100398763.1.3 switch=y r1=0.001 x1=0.001 r0=0.001 x0=0.001 Length=0.001 units=km
New Line.5585788:P5585788-2 phases=3 Bus1=101671037.1.2.3 Bus2=101671029.1.2.3 switch=y r1=0.001 x1=0.001 r0=0.001 x0=0.001 Length=0.001 units=km
New Line.5588566:P5588566-2 phases=2 Bus1=105491502.1.3 Bus2=105491494.1.3 switch=y r1=0.001 x1=0.001 r0=0.001 x0=0.001 Length=0.001 units=km
New Line.5348001:P5348001-1 phases=2 Bus1=41154272.2.3 Bus2=41154273.2.3 switch=y r1=0.001 x1=0.001 r0=0.001 x0=0.001 Length=0.001 units=km
New Line.5520060:P5520060-1 phases=3 Bus1=97319383.1.2.3 Bus2=97319384.1.2.3 switch=y r1=0.001 x1=0.001 r0=0.001 x0=0.001 Length=0.001 units=km
New Line.5585789:P5585789-1 phases=3 Bus1=101670863.1.2.3 Bus2=101670864.1.2.3 switch=y r1=0.001 x1=0.001 r0=0.001 x0=0.001 Length=0.001 units=km
New Line.5585788:P5585788-1 phases=3 Bus1=101671029.1.2.3 Bus2=101671028.1.2.3 switch=y r1=0.001 x1=0.001 r0=0.001 x0=0.001 Length=0.001 units=km
New Line.5348001:P5348001-2 phases=2 Bus1=41154273.2.3 Bus2=41154281.2.3 switch=y r1=0.001 x1=0.001 r0=0.001 x0=0.001 Length=0.001 units=km
New Line.5520060:P5520060-2 phases=3 Bus1=97319384.1.2.3 Bus2=97319392.1.2.3 switch=y r1=0.001 x1=0.001 r0=0.001 x0=0.001 Length=0.001 units=km
New Line.5585789:P5585789-2 phases=3 Bus1=101670864.1.2.3 Bus2=101670872.1.2.3 switch=y r1=0.001 x1=0.001 r0=0.001 x0=0.001 Length=0.001 units=km
New Line.5610881:P5610881-A phases=1 Bus1=240864970.2 Bus2=240864954.2 switch=y r1=0.001 x1=0.001 r0=0.001 x0=0.001 Length=0.001 units=km
New Line.5520182:P5520182-1 phases=2 Bus1=98376873.1.3 Bus2=98376874.1.3 switch=y r1=0.001 x1=0.001 r0=0.001 x0=0.001 Length=0.001 units=km
New Line.5610881:P5610881-B phases=1 Bus1=240864954.2 Bus2=240864953.2 switch=y r1=0.001 x1=0.001 r0=0.001 x0=0.001 Length=0.001 units=km
New Line.5610881:P5610881-T phases=1 Bus1=240864954.2 Bus2=240864962.2 switch=y r1=0.001 x1=0.001 r0=0.001 x0=0.001 Length=0.001 units=km
New Line.5414364:P5414364-1 phases=3 Bus1=41135793.1.2.3 Bus2=41135794.1.2.3 switch=y r1=0.001 x1=0.001 r0=0.001 x0=0.001 Length=0.001 units=km
New Line.5520182:P5520182-2 phases=2 Bus1=98376874.1.3 Bus2=98376882.1.3 switch=y r1=0.001 x1=0.001 r0=0.001 x0=0.001 Length=0.001 units=km
New Line.5414364:P5414364-2 phases=3 Bus1=41135794.1.2.3 Bus2=41135802.1.2.3 switch=y r1=0.001 x1=0.001 r0=0.001 x0=0.001 Length=0.001 units=km
New Line.5519970:P5519970-2 phases=2 Bus1=94837685.1.2 Bus2=94837677.1.2 switch=y r1=0.001 x1=0.001 r0=0.001 x0=0.001 Length=0.001 units=km
New Line.5347600:P5347600-1 phases=2 Bus1=41154344.2.3 Bus2=41154345.2.3 switch=y r1=0.001 x1=0.001 r0=0.001 x0=0.001 Length=0.001 units=km
New Line.5386762:P5386762-2 phases=2 Bus1=41100682.1.3 Bus2=41100690.1.3 switch=y r1=0.001 x1=0.001 r0=0.001 x0=0.001 Length=0.001 units=km
New Line.5430289:P5430289-2 phases=2 Bus1=28097036.1.2 Bus2=28097028.1.2 switch=y r1=0.001 x1=0.001 r0=0.001 x0=0.001 Length=0.001 units=km
New Line.5386825:P5386825-2 phases=2 Bus1=28157382.1.3 Bus2=28157374.1.3 switch=y r1=0.001 x1=0.001 r0=0.001 x0=0.001 Length=0.001 units=km
New Line.5347600:P5347600-2 phases=2 Bus1=41154345.2.3 Bus2=41154353.2.3 switch=y r1=0.001 x1=0.001 r0=0.001 x0=0.001 Length=0.001 units=km
New Line.5585800:P5585800-1 phases=2 Bus1=138089325.1.3 Bus2=138089326.1.3 switch=y r1=0.001 x1=0.001 r0=0.001 x0=0.001 Length=0.001 units=km
New Line.5430289:P5430289-1 phases=2 Bus1=28097028.1.2 Bus2=28097027.1.2 switch=y r1=0.001 x1=0.001 r0=0.001 x0=0.001 Length=0.001 units=km
New Line.5386825:P5386825-1 phases=2 Bus1=28157374.1.3 Bus2=28157373.1.3 switch=y r1=0.001 x1=0.001 r0=0.001 x0=0.001 Length=0.001 units=km
New Line.5414366:P5414366-1 phases=2 Bus1=41135721.1.3 Bus2=41135722.1.3 switch=y r1=0.001 x1=0.001 r0=0.001 x0=0.001 Length=0.001 units=km
New Line.5520150:P5520150-1 phases=2 Bus1=101059341.2.3 Bus2=101059342.2.3 switch=y r1=0.001 x1=0.001 r0=0.001 x0=0.001 Length=0.001 units=km
New Line.5588563:P5588563-1 phases=2 Bus1=108770105.1.3 Bus2=108770106.1.3 switch=y r1=0.001 x1=0.001 r0=0.001 x0=0.001 Length=0.001 units=km
New Line.5386487:P5386487-2 phases=2 Bus1=41100834.1.3 Bus2=41100826.1.3 switch=y r1=0.001 x1=0.001 r0=0.001 x0=0.001 Length=0.001 units=km
New Line.5386425:P5386425-1 phases=2 Bus1=41121181.1.3 Bus2=41121182.1.3 switch=y r1=0.001 x1=0.001 r0=0.001 x0=0.001 Length=0.001 units=km
New Line.2122369E:BF73122 phases=2 Bus1=41179018.1.3 Bus2=41179019.1.3 switch=y r1=0.001 x1=0.001 r0=0.001 x0=0.001 Length=0.001 units=km
New Line.4235025E:BF75139 phases=2 Bus1=211523728.1.2 Bus2=211523729.1.2 switch=y r1=0.001 x1=0.001 r0=0.001 x0=0.001 Length=0.001 units=km
New Line.4185237E:BF73821 phases=2 Bus1=166604228.1.2 Bus2=166604229.1.2 switch=y r1=0.001 x1=0.001 r0=0.001 x0=0.001 Length=0.001 units=km
New Line.2122361E:BF75194 phases=2 Bus1=211794152.1.2 Bus2=211794153.1.2 switch=y r1=0.001 x1=0.001 r0=0.001 x0=0.001 Length=0.001 units=km
New Line.2363363E:BF73124 phases=2 Bus1=41179179.1.2 Bus2=41179180.1.2 switch=y r1=0.001 x1=0.001 r0=0.001 x0=0.001 Length=0.001 units=km
New Line.4304398E:BF75209 phases=3 Bus1=211794189.1.2.3 Bus2=211794190.1.2.3 switch=y r1=0.001 x1=0.001 r0=0.001 x0=0.001 Length=0.001 units=km
New Line.4235049E:BF75137 phases=2 Bus1=211213096.2.3 Bus2=211213097.2.3 switch=y r1=0.001 x1=0.001 r0=0.001 x0=0.001 Length=0.001 units=km
New Line.4069286E:BF75135 phases=2 Bus1=211523812.1.2 Bus2=211523813.1.2 switch=y r1=0.001 x1=0.001 r0=0.001 x0=0.001 Length=0.001 units=km
New Line.267907S:BF73017 phases=2 Bus1=41179430.1.2 Bus2=41179431.1.2 switch=y r1=0.001 x1=0.001 r0=0.001 x0=0.001 Length=0.001 units=km
New Line.4120593E:BF75172 phases=2 Bus1=211524806.1.2 Bus2=211524807.1.2 switch=y r1=0.001 x1=0.001 r0=0.001 x0=0.001 Length=0.001 units=km
New Line.4068769E:BF75174 phases=3 Bus1=211524890.1.2.3 Bus2=211524891.1.2.3 switch=y r1=0.001 x1=0.001 r0=0.001 x0=0.001 Length=0.001 units=km
New Line.4184830E:BF00536 phases=2 Bus1=41178525.1.2 Bus2=41178526.1.2 switch=y r1=0.001 x1=0.001 r0=0.001 x0=0.001 Length=0.001 units=km
New Line.267822S:BF75144 phases=2 Bus1=211121711.1.2 Bus2=211121712.1.2 switch=y r1=0.001 x1=0.001 r0=0.001 x0=0.001 Length=0.001 units=km
New Line.4304389E:BF73375 phases=3 Bus1=41194277.1.2.3 Bus2=41194276.1.2.3 switch=y r1=0.001 x1=0.001 r0=0.001 x0=0.001 Length=0.001 units=km
New Line.2185205E:BF73778 phases=3 Bus1=41195310.1.2.3 Bus2=41195311.1.2.3 switch=y r1=0.001 x1=0.001 r0=0.001 x0=0.001 Length=0.001 units=km
New Line.4184982E:BF75175 phases=2 Bus1=211524008.1.2 Bus2=211524009.1.2 switch=y r1=0.001 x1=0.001 r0=0.001 x0=0.001 Length=0.001 units=km
New Line.4184800E:BF75173 phases=2 Bus1=211524848.1.2 Bus2=211524849.1.2 switch=y r1=0.001 x1=0.001 r0=0.001 x0=0.001 Length=0.001 units=km
New Line.65752S:BF75929 phases=2 Bus1=211121669.1.3 Bus2=211121670.1.3 switch=y r1=0.001 x1=0.001 r0=0.001 x0=0.001 Length=0.001 units=km
New Line.4067482E:BF75168 phases=2 Bus1=211524047.1.2 Bus2=211524048.1.2 switch=y r1=0.001 x1=0.001 r0=0.001 x0=0.001 Length=0.001 units=km
New Line.4874588E:BF75927 phases=2 Bus1=219751081.1.3 Bus2=219751082.1.3 switch=y r1=0.001 x1=0.001 r0=0.001 x0=0.001 Length=0.001 units=km
New Line.4304393E:BF75211 phases=2 Bus1=211794268.2.3 Bus2=211794269.2.3 switch=y r1=0.001 x1=0.001 r0=0.001 x0=0.001 Length=0.001 units=km
New Line.4874588E:BF73016 phases=2 Bus1=41192411.1.3 Bus2=41192412.1.3 switch=y r1=0.001 x1=0.001 r0=0.001 x0=0.001 Length=0.001 units=km
New Line.4185791E:89690061 phases=2 Bus1=89690063.1.3 Bus2=89690064.1.3 switch=y r1=0.001 x1=0.001 r0=0.001 x0=0.001 Length=0.001 units=km
New Line.4568920E:108684941 phases=2 Bus1=108684943.2.3 Bus2=108684944.2.3 switch=y r1=0.001 x1=0.001 r0=0.001 x0=0.001 Length=0.001 units=km
New Line.4120590E:174028860 phases=2 Bus1=174028862.1.2 Bus2=174028863.1.2 switch=y r1=0.001 x1=0.001 r0=0.001 x0=0.001 Length=0.001 units=km
New Line.4149066E:41067854 phases=2 Bus1=41067856.1.3 Bus2=41067857.1.3 switch=y r1=0.001 x1=0.001 r0=0.001 x0=0.001 Length=0.001 units=km
New Line.4072643E:41068354 phases=2 Bus1=41068356.1.2 Bus2=41068357.1.2 switch=y r1=0.001 x1=0.001 r0=0.001 x0=0.001 Length=0.001 units=km
New Line.65756S:41121536 phases=2 Bus1=41121538.1.2 Bus2=41121539.1.2 switch=y r1=0.001 x1=0.001 r0=0.001 x0=0.001 Length=0.001 units=km
New Line.65749S:41123455 phases=3 Bus1=41123457.1.2.3 Bus2=41123458.1.2.3 switch=y r1=0.001 x1=0.001 r0=0.001 x0=0.001 Length=0.001 units=km
New Line.66087S:41132238 phases=2 Bus1=41132240.1.3 Bus2=41132241.1.3 switch=y r1=0.001 x1=0.001 r0=0.001 x0=0.001 Length=0.001 units=km
New Line.4068770E:41134060 phases=3 Bus1=41134062.1.2.3 Bus2=41134063.1.2.3 switch=y r1=0.001 x1=0.001 r0=0.001 x0=0.001 Length=0.001 units=km
New Line.4155879E:41157041 phases=2 Bus1=41157043.1.3 Bus2=41157044.1.3 switch=y r1=0.001 x1=0.001 r0=0.001 x0=0.001 Length=0.001 units=km
New Line.4120401E:41157838 phases=2 Bus1=41157840.2.3 Bus2=41157841.2.3 switch=y r1=0.001 x1=0.001 r0=0.001 x0=0.001 Length=0.001 units=km
New Line.4185793E:70700529 phases=2 Bus1=70700531.1.3 Bus2=70700532.1.3 switch=y r1=0.001 x1=0.001 r0=0.001 x0=0.001 Length=0.001 units=km
New Line.4568790E:84119963 phases=2 Bus1=84119965.1.2 Bus2=84119966.1.2 switch=y r1=0.001 x1=0.001 r0=0.001 x0=0.001 Length=0.001 units=km
New Line.4606231E:95696188 phases=2 Bus1=95696190.1.3 Bus2=95696191.1.3 switch=y r1=0.001 x1=0.001 r0=0.001 x0=0.001 Length=0.001 units=km
New Line.4685579E:102479384 phases=2 Bus1=102479386.2.3 Bus2=102479387.2.3 switch=y r1=0.001 x1=0.001 r0=0.001 x0=0.001 Length=0.001 units=km
New Line.4072645E:141294274 phases=2 Bus1=141294276.1.2 Bus2=141294277.1.2 switch=y r1=0.001 x1=0.001 r0=0.001 x0=0.001 Length=0.001 units=km
New Line.4770322E:147847382 phases=2 Bus1=147847384.2.3 Bus2=147847385.2.3 switch=y r1=0.001 x1=0.001 r0=0.001 x0=0.001 Length=0.001 units=km
New Line.4071520E:108685238 phases=2 Bus1=108685240.1.2 Bus2=108685241.1.2 switch=y r1=0.001 x1=0.001 r0=0.001 x0=0.001 Length=0.001 units=km
New Line.4304406E:218421631 phases=3 Bus1=218421633.1.2.3 Bus2=218421634.1.2.3 switch=y r1=0.001 x1=0.001 r0=0.001 x0=0.001 Length=0.001 units=km
New Line.1544629E:41024465 phases=2 Bus1=41024467.1.3 Bus2=41024468.1.3 switch=y r1=0.001 x1=0.001 r0=0.001 x0=0.001 Length=0.001 units=km
...